psse_raw/case8_voltage_wind_correction.raw
0,   100.00, 33, 0, 1, 60.00     / PSS(R)E 33 RAW created by rawd33  THU, MAR 27 2025  13:48


   101,'NODE A      ', 230.0000,2,   1,   1,   1,1.00000,  -0.3736,1.10000,0.90000,1.10000,0.90000
   102,'NODE B      ', 230.0000,1,   1,   1,   1,1.00000,  -0.3736,1.10000,0.90000,1.10000,0.90000
   103,'NODE C      ', 230.0000,2,   1,   1,   1,1.00000,   0.0000,1.10000,0.90000,1.10000,0.90000
   104,'NODE D      ', 230.0000,3,   1,   1,   1,1.00000,   0.0000,1.10000,0.90000,1.10000,0.90000
   105,'NODE E      ', 230.0000,1,   1,   1,   1,1.00023,  -0.0688,1.10000,0.90000,1.10000,0.90000
   106,'NODE F      ', 230.0000,1,   1,   1,   1,0.99999,  -0.0556,1.10000,0.90000,1.10000,0.90000
   107,'NODE G      ', 138.0000,2,   1,   1,   1,1.00000,  -0.0063,1.10000,0.90000,1.10000,0.90000
   108,'NODE H      ', 230.0000,1,   1,   1,   1,0.99421,  -0.3790,1.10000,0.90000,1.10000,0.90000
0 / END OF BUS DATA, BEGIN LOAD DATA
   101,'1 ',1,   1,   1,   200.000,    50.000,     0.000,     0.000,     0.000,     0.000,   1,1,0
   102,'1 ',1,   1,   1,   150.000,    95.000,     0.000,     0.000,     0.000,     0.000,   1,1,0
   103,'1 ',1,   1,   1,   150.000,   100.000,     0.000,     0.000,     0.000,     0.000,   1,1,0
   105,'1 ',1,   1,   1,   200.000,    50.000,     0.000,     0.000,     0.000,     0.000,   1,1,0
   106,'1 ',1,   1,   1,    80.000,    20.000,     0.000,     0.000,     0.000,     0.000,   1,1,0
   108,'1 ',1,   1,   1,   300.000,   230.000,     0.000,     0.000,     0.000,     0.000,   1,1,0
0 / END OF LOAD DATA, BEGIN FIXED SHUNT DATA
   102,'FS',1,    10.000,    80.000
0 / END OF FIXED SHUNT DATA, BEGIN GENERATOR DATA
   101,'1 ',   200.000,   558.303,  9999.000, -9999.000,1.00000,     0,   100.000, 0.00000E+0, 1.00000E+0, 0.00000E+0, 0.00000E+0,1.00000,1,  100.0,  9999.000, -9999.000,   1,1.0000
   103,'1 ',   200.000,    25.072,  9999.000, -9999.000,1.00000,     0,   100.000, 0.00000E+0, 1.00000E+0, 0.00000E+0, 0.00000E+0,1.00000,1,  100.0,  9999.000, -9999.000,   1,1.0000
   103,'2 ',   150.000,    18.804,  9999.000, -9999.000,1.00000,     0,   100.000, 0.00000E+0, 1.00000E+0, 0.00000E+0, 0.00000E+0,1.00000,1,  100.0,  9999.000, -9999.000,   1,1.0000
   104,'1 ',   293.282,  -139.271,  9999.000, -9999.000,1.00000,     0,   100.000, 0.00000E+0, 1.00000E+0, 0.00000E+0, 0.00000E+0,1.00000,1,  100.0,  9999.000, -9999.000,   1,1.0000
   107,'1 ',   250.000,     4.282,  9999.000, -9999.000,1.00000,     0,   100.000, 0.00000E+0, 1.00000E+0, 0.00000E+0, 0.00000E+0,1.00000,1,  100.0,  9999.000, -9999.000,   1,1.0000
0 / END OF GENERATOR DATA, BEGIN BRANCH DATA
   101,   102,'1 ', 1.20000E-2, 1.00000E-4,   0.00000,    0.00,    0.00,    0.00,  0.00000,  0.00000,  0.00000,  0.00000,1,1,   0.00,   1,1.0000
   101,   104,'1 ', 3.40000E-3, 1.00000E-4,   0.00245,    0.00,    0.00,    0.00,  0.00000,  0.00000,  0.00000,  0.00000,1,1,   0.00,   1,1.0000
   101,   105,'1 ', 1.80000E-3, 1.00000E-4,   0.01960,    0.00,    0.00,    0.00,  0.00000,  0.00000,  0.00000,  0.00000,1,1,   0.00,   1,1.0000
   102,   103,'1 ', 3.40000E-4, 5.13000E-3,   0.00052,    0.00,    0.00,    0.00,  0.00000,  0.00000,  0.00000,  0.00000,1,1,   0.00,   1,1.0000
   103,   104,'1 ', 2.50000E-3, 1.00000E-4,   0.00000,    0.00,    0.00,    0.00,  0.00000,  0.00000,  0.00000,  0.00000,1,1,   0.00,   1,1.0000
   106,   108,'1 ', 3.00000E-4, 2.10000E-3,   0.00185,    0.00,    0.00,    0.00,  0.00000,  0.00000,  0.00000,  0.00000,1,1,   0.00,   1,1.0000
0 / END OF BRANCH DATA, BEGIN TRANSFORMER DATA
   105,   106,     0,'1 ',1,1,1, 0.00000E+0, 0.00000E+0,2,'TRAFO 2W 1  ',1,   1,1.0000,   0,1.0000,   0,1.0000,   0,1.0000,'            '
 0.00000E+0, 1.00000E-4,   100.00
1.00000,   0.000,   0.000,     0.00,     0.00,     0.00, 0,      0, 1.10000, 0.90000, 1.10000, 0.90000,  33, 0, 0.00000, 0.00000,  0.000
1.00000,   0.000
106,107,104,'1 ',2,1,2, 6.78330E+4, 1.05000E-2,2,'ORRINGTON T1',1, 101,1.0000,   0,1.0000,   0,1.0000,   0,1.0000,'YNa0d1      '
 7.00000E-2, 3.52000E-2,   100.00, 5.00000E-2, 8.69000E-2,   100.00, 3.00000E-2, 6.99000E-2,   100.00,1.02553, -35.9379
227.150, 230.000,   0.000,   245.00,   260.00,   300.00, 1,    106,235.5200,220.8000, 1.10000, 0.90000,  33, 0, 0.00000, 0.00000,  0.000
135.438, 138.000,   0.000,   245.00,   260.00,   300.00, 1,    107,145.5000,120.5000, 1.06000, 1.02600,  33, 0, 0.00000, 0.00000,  0.000
228.019, 230.000,   0.000,   245.00,   260.00,   300.00, 1,    104,235.5200,220.8000, 1.10000, 0.90000,  33, 0, 0.00000, 0.00000,  0.000
0 / END OF TRANSFORMER DATA, BEGIN AREA DATA
0 / END OF AREA DATA, BEGIN TWO-TERMINAL DC DATA
0 / END OF TWO-TERMINAL DC DATA, BEGIN VSC DC LINE DATA
0 / END OF VSC DC LINE DATA, BEGIN IMPEDANCE CORRECTION DATA
0 / END OF IMPEDANCE CORRECTION DATA, BEGIN MULTI-TERMINAL DC DATA
0 / END OF MULTI-TERMINAL DC DATA, BEGIN MULTI-SECTION LINE DATA
0 / END OF MULTI-SECTION LINE DATA, BEGIN ZONE DATA
0 / END OF ZONE DATA, BEGIN INTER-AREA TRANSFER DATA
0 / END OF INTER-AREA TRANSFER DATA, BEGIN OWNER DATA
0 / END OF OWNER DATA, BEGIN FACTS DEVICE DATA
0 / END OF FACTS DEVICE DATA, BEGIN SWITCHED SHUNT DATA
   105,1,0,1,1.00000,1.00000,     0,  100.0,'            ',    0.00, 3,    5.00
0 / END OF SWITCHED SHUNT DATA, BEGIN GNE DATA
0 / END OF GNE DATA, BEGIN INDUCTION MACHINE DATA
0 / END OF INDUCTION MACHINE DATA
Q
